15
ntf2-trans il.ff
N            1.490240       -1.388040       -0.486220
S            1.440610        0.120640       -1.109700
S            0.255940       -2.197800        0.212420
C            3.121050        0.310830       -1.673760
C            1.052780       -3.736530        0.631450
F            0.190480       -4.574040        1.234250
F            2.086650       -3.534200        1.468570
F            1.526840       -4.351360       -0.467570
F            3.303710        1.518310       -2.236770
F            3.433160       -0.624190       -2.589680
F            3.990470        0.194330       -0.653400
O            0.585380        0.101430       -2.264450
O            1.228510        1.045740       -0.030600
O           -0.084680       -1.527600        1.437190
O           -0.730430       -2.470490       -0.796510
